untitled
  ChemPy            3D                             0

 41 45  0  0  1  0  0  0  0  0999 V2000
   14.6300   -6.6230   12.2970 N   0  0  0  0  0  0  0  0  0  0  0  0
   15.1750   -5.2870   12.7430 C   0  0  0  0  0  0  0  0  0  0  0  0
   16.1870   -5.4460   13.8430 C   0  0  0  0  0  0  0  0  0  0  0  0
   14.0590   -4.2800   13.1630 C   0  0  0  0  0  0  0  0  0  0  0  0
   13.0210   -3.9940   12.0720 C   0  0  0  0  0  0  0  0  0  0  0  0
   11.7640   -4.6810   12.1280 C   0  0  0  0  0  0  0  0  0  0  0  0
   13.2850   -3.0650   11.0120 C   0  0  0  0  0  0  0  0  0  0  0  0
   10.7800   -4.4500   11.1480 C   0  0  0  0  0  0  0  0  0  0  0  0
   12.3040   -2.8260   10.0230 C   0  0  0  0  0  0  0  0  0  0  0  0
   11.0160   -3.5280   10.0790 C   0  0  0  0  0  0  0  0  0  0  0  0
    9.9370   -3.3850    9.1550 O   0  0  0  0  0  0  0  0  0  0  0  0
   15.2240   -7.7670   11.6100 C   0  0  0  0  0  0  0  0  0  0  0  0
   16.6460   -7.8050   11.3780 C   0  0  0  0  0  0  0  0  0  0  0  0
   17.2490   -8.8820   10.7250 C   0  0  0  0  0  0  0  0  0  0  0  0
   16.4700   -9.9630   10.2740 C   0  0  0  0  0  0  0  0  0  0  0  0
   15.0700   -9.9720   10.4770 C   0  0  0  0  0  0  0  0  0  0  0  0
   14.3950   -8.8860   11.1480 C   0  0  0  0  0  0  0  0  0  0  0  0
   12.8220   -9.0230   11.3070 C   0  0  0  0  0  0  0  0  0  0  0  0
   11.8910  -10.1700   10.9450 C   0  0  0  0  0  0  0  0  0  0  0  0
   10.5890   -9.8870   10.3830 C   0  0  0  0  0  0  0  0  0  0  0  0
    9.7040  -10.9480   10.0350 C   0  0  0  0  0  0  0  0  0  0  0  0
   10.1070  -12.3000   10.2430 C   0  0  0  0  0  0  0  0  0  0  0  0
   11.3870  -12.5880   10.7970 C   0  0  0  0  0  0  0  0  0  0  0  0
   12.2690  -11.5350   11.1440 C   0  0  0  0  0  0  0  0  0  0  0  0
   15.9520   -6.2630   14.7920 O   0  0  0  0  0  0  0  0  0  0  0  0
   12.2120   -8.0260   11.7450 O   0  0  0  0  0  0  0  0  0  0  0  0
   17.2590   -4.8030   13.7310 O   0  0  0  0  0  0  0  0  0  0  0  0
   10.1330   -2.6860    7.9020 C   0  0  0  0  0  0  0  0  0  0  0  0
    8.8860   -2.9130    7.0260 C   0  0  0  0  0  0  0  0  0  0  0  0
    8.9300   -4.2570    6.2210 C   0  0  0  0  0  0  0  0  0  0  0  0
    8.3000   -5.5050    6.5670 C   0  0  0  0  0  0  0  0  0  0  0  0
    7.4350   -5.8570    7.7840 C   0  0  0  0  0  0  0  0  0  0  0  0
    9.4630   -5.6750    4.5590 C   0  0  0  0  0  0  0  0  0  0  0  0
    9.9910   -6.1960    3.3780 C   0  0  0  0  0  0  0  0  0  0  0  0
    9.7290   -7.5690    3.0540 C   0  0  0  0  0  0  0  0  0  0  0  0
   10.2440   -8.1370    1.8620 C   0  0  0  0  0  0  0  0  0  0  0  0
   11.0230   -7.3440    0.9760 C   0  0  0  0  0  0  0  0  0  0  0  0
   11.2940   -5.9840    1.2780 C   0  0  0  0  0  0  0  0  0  0  0  0
   10.7850   -5.4040    2.4690 C   0  0  0  0  0  0  0  0  0  0  0  0
    9.6210   -4.3510    5.0320 N   0  0  0  0  0  0  0  0  0  0  0  0
    8.6790   -6.3110    5.5150 O   0  0  0  0  0  0  0  0  0  0  0  0
  1  2  1  0  0  0  0
  1 12  1  0  0  0  0
  2  3  1  0  0  0  0
  2  4  1  0  0  0  0
  4  5  1  0  0  0  0
  5  6  4  0  0  0  0
  5  7  4  0  0  0  0
  6  8  4  0  0  0  0
  7  9  4  0  0  0  0
  8 10  4  0  0  0  0
  9 10  4  0  0  0  0
 10 11  1  0  0  0  0
 11 28  1  0  0  0  0
 12 13  4  0  0  0  0
 12 17  4  0  0  0  0
 14 13  4  0  0  0  0
 15 14  4  0  0  0  0
 16 15  4  0  0  0  0
 17 16  4  0  0  0  0
 17 18  1  0  0  0  0
 18 26  2  0  0  0  0
 19 18  1  0  0  0  0
 19 20  4  0  0  0  0
 19 24  4  0  0  0  0
 20 21  4  0  0  0  0
 21 22  4  0  0  0  0
 22 23  4  0  0  0  0
 23 24  4  0  0  0  0
 25  3  4  0  0  0  0
 27  3  4  0  0  0  0
 28 29  1  0  0  0  0
 30 29  1  0  0  0  0
 30 31  4  0  0  0  0
 31 32  1  0  0  0  0
 33 34  1  0  0  0  0
 33 40  4  0  0  0  0
 34 35  4  0  0  0  0
 34 39  4  0  0  0  0
 36 35  4  0  0  0  0
 37 36  4  0  0  0  0
 38 37  4  0  0  0  0
 39 38  4  0  0  0  0
 40 30  4  0  0  0  0
 41 31  4  0  0  0  0
 41 33  4  0  0  0  0
M  END
$$$$
